-------------------------------------------------------
          Amber 16 PMEMD                              2016
          -------------------------------------------------------

  [-O]verwriting output

File Assignments:

 Here is the input file:

A NPT simulation for common production-level simulations
 &cntrl
    imin=0,        ! No minimization
    irest=1,       ! This IS a restart of an old MD simulation
    ntx=5,         ! So our inpcrd file has velocities

    ! Temperature control
    ntt=3,         ! Langevin dynamics
    gamma_ln=1.0,  ! Friction coefficient (ps^-1)
    temp0=310.15,   ! Target temperature

    ! Potential energy control
    cut=6.0,      ! Nonbonded cutoff, in Angstroms
    fswitch=5.0,  ! Force-based switching

    ! MD settings
    nstlim=25000,  ! 25K steps, 25 ps total
    dt=0.002,      ! time step (ps)

    ! SHAKE
    ntc=2,         ! Constrain bonds containing hydrogen
    ntf=2,         ! Do not calculate forces of bonds containing hydrogen

    ! Control how often information is printed
    ntpr=1000,     ! Print energies every 1000 steps
    ntwx=1000,     ! Print coordinates every 1000 steps to the trajectory
    ntwr=10000,    ! Print a restart file every 10K steps (can be less frequent
!   ntwv=-1,       ! Uncomment to also print velocities to trajectory
!   ntwf=-1,       ! Uncomment to also print forces to trajectory
    ntxo=2,        ! Write NetCDF format
    ioutfm=1,      ! Write NetCDF format (always do this!)

    ! Wrap coordinates when printing them to the same unit cell
    iwrap=0,

    ! Constant pressure control.
    barostat=2,    ! MC barostat... change to 1 for Berendsen
    ntp=1,         ! 1=isotropic, 2=anisotropic, 3=semi-isotropic w/ surften
    pres0=1.0,     ! Target external pressure, in bar

    ! Constant surface tension (needed for semi-isotropic scaling). Uncomment
    ! for this feature. csurften must be nonzero if ntp=3 above
    !csurften=3,    ! Interfaces in 1=yz plane, 2=xz plane, 3=xy plane
    !gamma_ten=0.0, ! Surface tension (dyne/cm). 0 gives pure semi-iso scaling
    !ninterface=2,  ! Number of interfaces (2 for bilayer)

    ! Restraint options
    !ntr=1,         ! Positional restraints for proteins, sugars, ligands, and
    !nmropt=1,      ! Dihedral restraints for sugars and lipids

    ! Set water atom/residue names for SETTLE recognition
    watnam='WAT',  ! Water residues are named WAT
    owtnm='O',     ! Water oxygens are named O
 /

 &ewald
    vdwmeth = 0,
 /

Note: ig = -1. Setting random seed to   425976 based on wallclock time in
      microseconds.

--------------------------------------------------------------------------------
   1.  RESOURCE   USE:
--------------------------------------------------------------------------------

 getting box info from netcdf restart file
 NATOM  =    1776 NTYPES =      18 NBONH =    1741 MBONA  =      32
 NTHETH =     642 MTHETA =      41 NPHIH =     112 MPHIA  =      63
 NHPARM =       0 NPARM  =       0 NNB   =    2616 NRES   =     575
 NBONA  =      32 NTHETA =      41 NPHIA =      63 NUMBND =      21
 NUMANG =      41 NPTRA  =      72 NATYP =       1 NPHB   =       0
 IFBOX  =       1 NMXRS  =      26 IFCAP =       0 NEXTRA =       0
 NCOPY  =       0

     BOX TYPE: RECTILINEAR

--------------------------------------------------------------------------------
   2.  CONTROL  DATA  FOR  THE  RUN
--------------------------------------------------------------------------------

General flags:
     imin    =       0, nmropt  =       0

Nature and format of input:
     ntx     =       5, irest   =       1, ntrx    =       1

Nature and format of output:
     ntxo    =       2, ntpr    =    1000, ntrx    =       1, ntwr    =   10000
     iwrap   =       0, ntwx    =    1000, ntwv    =       0, ntwe    =       0
     ioutfm  =       1, ntwprt  =       0, idecomp =       0, rbornstat=      0

Potential function:
     ntf     =       2, ntb     =       2, igb     =       0, nsnb    =      25
     ipol    =       0, gbsa    =       0, iesp    =       0
     dielc   =   1.00000, cut     =   6.00000, intdiel =   1.00000

Frozen or restrained atoms:
     ibelly  =       0, ntr     =       0

Molecular dynamics:
     nstlim  =     25000, nscm    =      1000, nrespa  =         1
     t       =   0.00000, dt      =   0.00200, vlimit  =  -1.00000

Langevin dynamics temperature regulation:
     ig      =  425976
     temp0   = 310.15000, tempi   =   0.00000, gamma_ln=   1.00000

Pressure regulation:
     ntp     =       1
     pres0   =   1.00000, comp    =  44.60000, taup    =   1.00000
     Monte-Carlo Barostat:
     mcbarint  =     100

SHAKE:
     ntc     =       2, jfastw  =       0
     tol     =   0.00001

Ewald parameters:
     verbose =       0, ew_type =       0, nbflag  =       1, use_pme =       1
     vdwmeth =       0, eedmeth =       1, netfrc  =       1
     Box X =   26.946   Box Y =   26.639   Box Z =   26.754
     Alpha =   90.000   Beta  =   90.000   Gamma =   90.000
     NFFT1 =   28       NFFT2 =   28       NFFT3 =   28
     Cutoff=    6.000   Tol   =0.100E-04
     Ewald Coefficient =  0.47291
     Interpolation order =    4

--------------------------------------------------------------------------------
   3.  ATOMIC COORDINATES AND VELOCITIES
--------------------------------------------------------------------------------

 begin time read from input coords =    50.000 ps

 Number of triangulated 3-point waters found:      569

     Sum of charges from parm topology file =   0.00000000
     Forcing neutrality...

--------------------------------------------------------------------------------
   4.  RESULTS
 NSTEP =     1000   TIME(PS) =      52.000  TEMP(K) =   308.80  PRESS =     0.0
 Etot   =     -4497.0087  EKtot   =      1100.5607  EPtot      =     -5597.5694
 BOND   =        16.9508  ANGLE   =        30.5119  DIHED      =        35.5172
 UB     =         3.3317  IMP     =         1.5758  CMAP       =        -3.8745
 1-4 NB =        18.5428  1-4 EEL =      -249.1599  VDWAALS    =       859.5359
 EELEC  =     -6310.5011  EHBOND  =         0.0000  RESTRAINT  =         0.0000
 EKCMT  =         0.0000  VIRIAL  =         0.0000  VOLUME     =     19279.6086
                                                    Density    =         0.9310
 ------------------------------------------------------------------------------

      A V E R A G E S   O V E R      25 S T E P S

 NSTEP =    25000   TIME(PS) =     100.000  TEMP(K) =   314.80  PRESS =     0.0
 Etot   =     -4487.4200  EKtot   =      1121.9607  EPtot      =     -5609.3808
 BOND   =        16.7292  ANGLE   =        31.0238  DIHED      =        30.0709
 UB     =         3.7238  IMP     =         1.9540  CMAP       =        -2.8931
 1-4 NB =        17.4487  1-4 EEL =      -246.9347  VDWAALS    =       805.7492
 EELEC  =     -6266.2526  EHBOND  =         0.0000  RESTRAINT  =         0.0000
 EKCMT  =         0.0000  VIRIAL  =         0.0000  VOLUME     =     19234.3781
                                                    Density    =         0.9334
 ------------------------------------------------------------------------------

      R M S  F L U C T U A T I O N S

 NSTEP =    25000   TIME(PS) =     100.000  TEMP(K) =     7.49  PRESS =     0.0
 Etot   =        46.5854  EKtot   =        26.7065  EPtot      =        37.6263
 BOND   =         2.3914  ANGLE   =         4.4339  DIHED      =         3.7160
 UB     =         0.8079  IMP     =         0.6041  CMAP       =         1.6343
 1-4 NB =         1.8225  1-4 EEL =         5.6675  VDWAALS    =        29.3883
 EELEC  =        55.1615  EHBOND  =         0.0000  RESTRAINT  =         0.0000
 EKCMT  =         0.0000  VIRIAL  =         0.0000  VOLUME     =       259.0250
                                                    Density    =         0.0126
 ------------------------------------------------------------------------------
